BEGIN Configuration File: lab1/config
// Topology
topology = torus;
k = 8;
n = 2;
// Routing
routing_function = dim_order;
// Flow control
num_vcs = 4;
// Traffic
traffic = uniform;
injection_rate = 0.15;;END Configuration File: lab1/config
OVERRIDE Parameter: injection_rate=0.25
Class 0:
Packet latency average = 32.3398
	minimum = 7
	maximum = 72
Network latency average = 32.3398
	minimum = 7
	maximum = 72
Slowest packet = 12314
Flit latency average = 32.3398
	minimum = 7
	maximum = 72
Slowest flit = 12314
Fragmentation average = 0
	minimum = 0
	maximum = 0
Injected packet rate average = 0.248609
	minimum = 0.214 (at node 1)
	maximum = 0.277 (at node 33)
Accepted packet rate average = 0.239875
	minimum = 0.202 (at node 52)
	maximum = 0.278 (at node 23)
Injected flit rate average = 0.248609
	minimum = 0.214 (at node 1)
	maximum = 0.277 (at node 33)
Accepted flit rate average= 0.239875
	minimum = 0.202 (at node 52)
	maximum = 0.278 (at node 23)
Injected packet length average = 1
Accepted packet length average = 1
Total in-flight flits = 559 (0 measured)
latency change    = 1
throughput change = 1
Class 0:
Packet latency average = 32.4384
	minimum = 7
	maximum = 72
Network latency average = 32.4384
	minimum = 7
	maximum = 72
Slowest packet = 12314
Flit latency average = 32.4384
	minimum = 7
	maximum = 72
Slowest flit = 12314
Fragmentation average = 0
	minimum = 0
	maximum = 0
Injected packet rate average = 0.249391
	minimum = 0.2215 (at node 1)
	maximum = 0.2735 (at node 51)
Accepted packet rate average = 0.245672
	minimum = 0.223 (at node 52)
	maximum = 0.279 (at node 51)
Injected flit rate average = 0.249391
	minimum = 0.2215 (at node 1)
	maximum = 0.2735 (at node 51)
Accepted flit rate average= 0.245672
	minimum = 0.223 (at node 52)
	maximum = 0.279 (at node 51)
Injected packet length average = 1
Accepted packet length average = 1
Total in-flight flits = 476 (0 measured)
latency change    = 0.00303792
throughput change = 0.023596
Class 0:
Packet latency average = 32.5442
	minimum = 7
	maximum = 71
Network latency average = 32.5442
	minimum = 7
	maximum = 71
Slowest packet = 41074
Flit latency average = 32.5442
	minimum = 7
	maximum = 71
Slowest flit = 41074
Fragmentation average = 0
	minimum = 0
	maximum = 0
Injected packet rate average = 0.247438
	minimum = 0.224 (at node 3)
	maximum = 0.279 (at node 47)
Accepted packet rate average = 0.246828
	minimum = 0.206 (at node 31)
	maximum = 0.283 (at node 4)
Injected flit rate average = 0.247438
	minimum = 0.224 (at node 3)
	maximum = 0.279 (at node 47)
Accepted flit rate average= 0.246828
	minimum = 0.206 (at node 31)
	maximum = 0.283 (at node 4)
Injected packet length average = 1
Accepted packet length average = 1
Total in-flight flits = 515 (0 measured)
latency change    = 0.00325046
throughput change = 0.00468443
Warmed up ...Time used is 3000 cycles
Class 0:
Packet latency average = 32.4342
	minimum = 7
	maximum = 66
Network latency average = 32.4342
	minimum = 7
	maximum = 66
Slowest packet = 60896
Flit latency average = 32.5879
	minimum = 7
	maximum = 66
Slowest flit = 60896
Fragmentation average = 0
	minimum = 0
	maximum = 0
Injected packet rate average = 0.250156
	minimum = 0.216 (at node 18)
	maximum = 0.291 (at node 1)
Accepted packet rate average = 0.249234
	minimum = 0.221 (at node 33)
	maximum = 0.292 (at node 27)
Injected flit rate average = 0.250156
	minimum = 0.216 (at node 18)
	maximum = 0.291 (at node 1)
Accepted flit rate average= 0.249234
	minimum = 0.221 (at node 33)
	maximum = 0.292 (at node 27)
Injected packet length average = 1
Accepted packet length average = 1
Total in-flight flits = 574 (574 measured)
latency change    = 0.00339069
throughput change = 0.00965457
Class 0:
Packet latency average = 32.549
	minimum = 7
	maximum = 71
Network latency average = 32.549
	minimum = 7
	maximum = 71
Slowest packet = 62932
Flit latency average = 32.6238
	minimum = 7
	maximum = 71
Slowest flit = 62932
Fragmentation average = 0
	minimum = 0
	maximum = 0
Injected packet rate average = 0.249586
	minimum = 0.231 (at node 52)
	maximum = 0.269 (at node 2)
Accepted packet rate average = 0.249844
	minimum = 0.2285 (at node 24)
	maximum = 0.2705 (at node 14)
Injected flit rate average = 0.249586
	minimum = 0.231 (at node 52)
	maximum = 0.269 (at node 2)
Accepted flit rate average= 0.249844
	minimum = 0.2285 (at node 24)
	maximum = 0.2705 (at node 14)
Injected packet length average = 1
Accepted packet length average = 1
Total in-flight flits = 482 (482 measured)
latency change    = 0.00352636
throughput change = 0.00243902
Class 0:
Packet latency average = 32.5374
	minimum = 7
	maximum = 71
Network latency average = 32.5374
	minimum = 7
	maximum = 71
Slowest packet = 62932
Flit latency average = 32.5874
	minimum = 7
	maximum = 71
Slowest flit = 62932
Fragmentation average = 0
	minimum = 0
	maximum = 0
Injected packet rate average = 0.249505
	minimum = 0.232333 (at node 52)
	maximum = 0.266 (at node 1)
Accepted packet rate average = 0.249615
	minimum = 0.231333 (at node 54)
	maximum = 0.269 (at node 49)
Injected flit rate average = 0.249505
	minimum = 0.232333 (at node 52)
	maximum = 0.266 (at node 1)
Accepted flit rate average= 0.249615
	minimum = 0.231333 (at node 54)
	maximum = 0.269 (at node 49)
Injected packet length average = 1
Accepted packet length average = 1
Total in-flight flits = 494 (494 measured)
latency change    = 0.000355693
throughput change = 0.000918082
Draining all recorded packets ...
Draining remaining packets ...
Time taken is 6109 cycles
====== Overall Traffic Statistics ======
====== Traffic class 0 ======
Packet latency average = 32.5779 (1 samples)
	minimum = 7 (1 samples)
	maximum = 71 (1 samples)
Network latency average = 32.5779 (1 samples)
	minimum = 7 (1 samples)
	maximum = 71 (1 samples)
Flit latency average = 32.617 (1 samples)
	minimum = 7 (1 samples)
	maximum = 71 (1 samples)
Fragmentation average = 0 (1 samples)
	minimum = 0 (1 samples)
	maximum = 0 (1 samples)
Injected packet rate average = 0.249505 (1 samples)
	minimum = 0.232333 (1 samples)
	maximum = 0.266 (1 samples)
Accepted packet rate average = 0.249615 (1 samples)
	minimum = 0.231333 (1 samples)
	maximum = 0.269 (1 samples)
Injected flit rate average = 0.249505 (1 samples)
	minimum = 0.232333 (1 samples)
	maximum = 0.266 (1 samples)
Accepted flit rate average = 0.249615 (1 samples)
	minimum = 0.231333 (1 samples)
	maximum = 0.269 (1 samples)
Injected packet size average = 1 (1 samples)
Accepted packet size average = 1 (1 samples)
Hops average = 5.00367 (1 samples)
Total run time 0.63103
