BEGIN Configuration File: lab1/config
// Topology
topology = torus;
k = 8;
n = 2;
// Routing
routing_function = dim_order;
// Flow control
num_vcs = 4;
// Traffic
traffic = uniform;
injection_rate = 0.15;;END Configuration File: lab1/config
OVERRIDE Parameter: injection_rate=0.20
Class 0:
Packet latency average = 31.8784
	minimum = 7
	maximum = 65
Network latency average = 31.8784
	minimum = 7
	maximum = 65
Slowest packet = 8772
Flit latency average = 31.8784
	minimum = 7
	maximum = 65
Slowest flit = 8772
Fragmentation average = 0
	minimum = 0
	maximum = 0
Injected packet rate average = 0.197109
	minimum = 0.156 (at node 7)
	maximum = 0.219 (at node 28)
Accepted packet rate average = 0.190531
	minimum = 0.146 (at node 22)
	maximum = 0.228 (at node 23)
Injected flit rate average = 0.197109
	minimum = 0.156 (at node 7)
	maximum = 0.219 (at node 28)
Accepted flit rate average= 0.190531
	minimum = 0.146 (at node 22)
	maximum = 0.228 (at node 23)
Injected packet length average = 1
Accepted packet length average = 1
Total in-flight flits = 421 (0 measured)
latency change    = 1
throughput change = 1
Class 0:
Packet latency average = 31.959
	minimum = 7
	maximum = 65
Network latency average = 31.959
	minimum = 7
	maximum = 65
Slowest packet = 8772
Flit latency average = 31.959
	minimum = 7
	maximum = 65
Slowest flit = 8772
Fragmentation average = 0
	minimum = 0
	maximum = 0
Injected packet rate average = 0.198797
	minimum = 0.171 (at node 7)
	maximum = 0.221 (at node 51)
Accepted packet rate average = 0.195805
	minimum = 0.178 (at node 52)
	maximum = 0.2275 (at node 23)
Injected flit rate average = 0.198797
	minimum = 0.171 (at node 7)
	maximum = 0.221 (at node 51)
Accepted flit rate average= 0.195805
	minimum = 0.178 (at node 52)
	maximum = 0.2275 (at node 23)
Injected packet length average = 1
Accepted packet length average = 1
Total in-flight flits = 383 (0 measured)
latency change    = 0.002522
throughput change = 0.0269321
Class 0:
Packet latency average = 31.8563
	minimum = 7
	maximum = 68
Network latency average = 31.8563
	minimum = 7
	maximum = 68
Slowest packet = 32404
Flit latency average = 31.8563
	minimum = 7
	maximum = 68
Slowest flit = 32404
Fragmentation average = 0
	minimum = 0
	maximum = 0
Injected packet rate average = 0.197875
	minimum = 0.169 (at node 45)
	maximum = 0.229 (at node 47)
Accepted packet rate average = 0.197391
	minimum = 0.155 (at node 11)
	maximum = 0.234 (at node 57)
Injected flit rate average = 0.197875
	minimum = 0.169 (at node 45)
	maximum = 0.229 (at node 47)
Accepted flit rate average= 0.197391
	minimum = 0.155 (at node 11)
	maximum = 0.234 (at node 57)
Injected packet length average = 1
Accepted packet length average = 1
Total in-flight flits = 414 (0 measured)
latency change    = 0.00322243
throughput change = 0.00803451
Warmed up ...Time used is 3000 cycles
Class 0:
Packet latency average = 32.0085
	minimum = 7
	maximum = 63
Network latency average = 32.0085
	minimum = 7
	maximum = 63
Slowest packet = 44515
Flit latency average = 32.1354
	minimum = 7
	maximum = 63
Slowest flit = 44515
Fragmentation average = 0
	minimum = 0
	maximum = 0
Injected packet rate average = 0.201156
	minimum = 0.175 (at node 18)
	maximum = 0.227 (at node 26)
Accepted packet rate average = 0.200813
	minimum = 0.172 (at node 32)
	maximum = 0.22 (at node 36)
Injected flit rate average = 0.201156
	minimum = 0.175 (at node 18)
	maximum = 0.227 (at node 26)
Accepted flit rate average= 0.200813
	minimum = 0.172 (at node 32)
	maximum = 0.22 (at node 36)
Injected packet length average = 1
Accepted packet length average = 1
Total in-flight flits = 436 (436 measured)
latency change    = 0.00475478
throughput change = 0.0170401
Class 0:
Packet latency average = 32.0349
	minimum = 7
	maximum = 68
Network latency average = 32.0349
	minimum = 7
	maximum = 68
Slowest packet = 52510
Flit latency average = 32.098
	minimum = 7
	maximum = 68
Slowest flit = 52510
Fragmentation average = 0
	minimum = 0
	maximum = 0
Injected packet rate average = 0.200477
	minimum = 0.1875 (at node 57)
	maximum = 0.222 (at node 2)
Accepted packet rate average = 0.20057
	minimum = 0.1795 (at node 32)
	maximum = 0.2155 (at node 2)
Injected flit rate average = 0.200477
	minimum = 0.1875 (at node 57)
	maximum = 0.222 (at node 2)
Accepted flit rate average= 0.20057
	minimum = 0.1795 (at node 32)
	maximum = 0.2155 (at node 2)
Injected packet length average = 1
Accepted packet length average = 1
Total in-flight flits = 402 (402 measured)
latency change    = 0.00082274
throughput change = 0.00120749
Class 0:
Packet latency average = 32.0063
	minimum = 7
	maximum = 68
Network latency average = 32.0063
	minimum = 7
	maximum = 68
Slowest packet = 52510
Flit latency average = 32.0487
	minimum = 7
	maximum = 68
Slowest flit = 52510
Fragmentation average = 0
	minimum = 0
	maximum = 0
Injected packet rate average = 0.200182
	minimum = 0.185667 (at node 50)
	maximum = 0.216 (at node 37)
Accepted packet rate average = 0.200229
	minimum = 0.181667 (at node 24)
	maximum = 0.212667 (at node 7)
Injected flit rate average = 0.200182
	minimum = 0.185667 (at node 50)
	maximum = 0.216 (at node 37)
Accepted flit rate average= 0.200229
	minimum = 0.181667 (at node 24)
	maximum = 0.212667 (at node 7)
Injected packet length average = 1
Accepted packet length average = 1
Total in-flight flits = 405 (405 measured)
latency change    = 0.000892569
throughput change = 0.00170378
Draining all recorded packets ...
Draining remaining packets ...
Time taken is 6108 cycles
====== Overall Traffic Statistics ======
====== Traffic class 0 ======
Packet latency average = 32.0458 (1 samples)
	minimum = 7 (1 samples)
	maximum = 68 (1 samples)
Network latency average = 32.0458 (1 samples)
	minimum = 7 (1 samples)
	maximum = 68 (1 samples)
Flit latency average = 32.0909 (1 samples)
	minimum = 7 (1 samples)
	maximum = 68 (1 samples)
Fragmentation average = 0 (1 samples)
	minimum = 0 (1 samples)
	maximum = 0 (1 samples)
Injected packet rate average = 0.200182 (1 samples)
	minimum = 0.185667 (1 samples)
	maximum = 0.216 (1 samples)
Accepted packet rate average = 0.200229 (1 samples)
	minimum = 0.181667 (1 samples)
	maximum = 0.212667 (1 samples)
Injected flit rate average = 0.200182 (1 samples)
	minimum = 0.185667 (1 samples)
	maximum = 0.216 (1 samples)
Accepted flit rate average = 0.200229 (1 samples)
	minimum = 0.181667 (1 samples)
	maximum = 0.212667 (1 samples)
Injected packet size average = 1 (1 samples)
Accepted packet size average = 1 (1 samples)
Hops average = 4.99958 (1 samples)
Total run time 0.51396
