BEGIN Configuration File: lab1/config
// Topology
topology = torus;
k = 8;
n = 2;
// Routing
routing_function = dim_order;
// Flow control
num_vcs = 4;
// Traffic
traffic = uniform;
injection_rate = 0.15;;END Configuration File: lab1/config
Class 0:
Packet latency average = 31.6867
	minimum = 7
	maximum = 61
Network latency average = 31.6867
	minimum = 7
	maximum = 61
Slowest packet = 959
Flit latency average = 31.6867
	minimum = 7
	maximum = 61
Slowest flit = 959
Fragmentation average = 0
	minimum = 0
	maximum = 0
Injected packet rate average = 0.147844
	minimum = 0.126 (at node 7)
	maximum = 0.168 (at node 43)
Accepted packet rate average = 0.142578
	minimum = 0.11 (at node 52)
	maximum = 0.175 (at node 38)
Injected flit rate average = 0.147844
	minimum = 0.126 (at node 7)
	maximum = 0.168 (at node 43)
Accepted flit rate average= 0.142578
	minimum = 0.11 (at node 52)
	maximum = 0.175 (at node 38)
Injected packet length average = 1
Accepted packet length average = 1
Total in-flight flits = 337 (0 measured)
latency change    = 1
throughput change = 1
Class 0:
Packet latency average = 31.7241
	minimum = 7
	maximum = 62
Network latency average = 31.7241
	minimum = 7
	maximum = 62
Slowest packet = 8960
Flit latency average = 31.7241
	minimum = 7
	maximum = 62
Slowest flit = 8960
Fragmentation average = 0
	minimum = 0
	maximum = 0
Injected packet rate average = 0.149156
	minimum = 0.1345 (at node 7)
	maximum = 0.166 (at node 51)
Accepted packet rate average = 0.146891
	minimum = 0.122 (at node 36)
	maximum = 0.1675 (at node 23)
Injected flit rate average = 0.149156
	minimum = 0.1345 (at node 7)
	maximum = 0.166 (at node 51)
Accepted flit rate average= 0.146891
	minimum = 0.122 (at node 36)
	maximum = 0.1675 (at node 23)
Injected packet length average = 1
Accepted packet length average = 1
Total in-flight flits = 290 (0 measured)
latency change    = 0.00118018
throughput change = 0.0293586
Class 0:
Packet latency average = 32.0148
	minimum = 7
	maximum = 62
Network latency average = 32.0148
	minimum = 7
	maximum = 62
Slowest packet = 23798
Flit latency average = 32.0148
	minimum = 7
	maximum = 62
Slowest flit = 23798
Fragmentation average = 0
	minimum = 0
	maximum = 0
Injected packet rate average = 0.14825
	minimum = 0.121 (at node 38)
	maximum = 0.176 (at node 22)
Accepted packet rate average = 0.147953
	minimum = 0.126 (at node 28)
	maximum = 0.172 (at node 13)
Injected flit rate average = 0.14825
	minimum = 0.121 (at node 38)
	maximum = 0.176 (at node 22)
Accepted flit rate average= 0.147953
	minimum = 0.126 (at node 28)
	maximum = 0.172 (at node 13)
Injected packet length average = 1
Accepted packet length average = 1
Total in-flight flits = 309 (0 measured)
latency change    = 0.00907893
throughput change = 0.00718133
Warmed up ...Time used is 3000 cycles
Class 0:
Packet latency average = 31.6221
	minimum = 7
	maximum = 62
Network latency average = 31.6221
	minimum = 7
	maximum = 62
Slowest packet = 33828
Flit latency average = 31.7226
	minimum = 7
	maximum = 62
Slowest flit = 28453
Fragmentation average = 0
	minimum = 0
	maximum = 0
Injected packet rate average = 0.151922
	minimum = 0.128 (at node 19)
	maximum = 0.186 (at node 26)
Accepted packet rate average = 0.151531
	minimum = 0.125 (at node 27)
	maximum = 0.175 (at node 19)
Injected flit rate average = 0.151922
	minimum = 0.128 (at node 19)
	maximum = 0.186 (at node 26)
Accepted flit rate average= 0.151531
	minimum = 0.125 (at node 27)
	maximum = 0.175 (at node 19)
Injected packet length average = 1
Accepted packet length average = 1
Total in-flight flits = 334 (334 measured)
latency change    = 0.0124177
throughput change = 0.0236131
Class 0:
Packet latency average = 31.6067
	minimum = 7
	maximum = 62
Network latency average = 31.6067
	minimum = 7
	maximum = 62
Slowest packet = 33828
Flit latency average = 31.6573
	minimum = 7
	maximum = 62
Slowest flit = 28453
Fragmentation average = 0
	minimum = 0
	maximum = 0
Injected packet rate average = 0.150891
	minimum = 0.1335 (at node 52)
	maximum = 0.175 (at node 2)
Accepted packet rate average = 0.151125
	minimum = 0.1295 (at node 17)
	maximum = 0.17 (at node 19)
Injected flit rate average = 0.150891
	minimum = 0.1335 (at node 52)
	maximum = 0.175 (at node 2)
Accepted flit rate average= 0.151125
	minimum = 0.1295 (at node 17)
	maximum = 0.17 (at node 19)
Injected packet length average = 1
Accepted packet length average = 1
Total in-flight flits = 279 (279 measured)
latency change    = 0.000488475
throughput change = 0.00268817
Class 0:
Packet latency average = 31.635
	minimum = 7
	maximum = 62
Network latency average = 31.635
	minimum = 7
	maximum = 62
Slowest packet = 33828
Flit latency average = 31.6686
	minimum = 7
	maximum = 62
Slowest flit = 28453
Fragmentation average = 0
	minimum = 0
	maximum = 0
Injected packet rate average = 0.150281
	minimum = 0.134333 (at node 50)
	maximum = 0.166 (at node 26)
Accepted packet rate average = 0.150422
	minimum = 0.134667 (at node 17)
	maximum = 0.166667 (at node 57)
Injected flit rate average = 0.150281
	minimum = 0.134333 (at node 50)
	maximum = 0.166 (at node 26)
Accepted flit rate average= 0.150422
	minimum = 0.134667 (at node 17)
	maximum = 0.166667 (at node 57)
Injected packet length average = 1
Accepted packet length average = 1
Total in-flight flits = 282 (282 measured)
latency change    = 0.000896329
throughput change = 0.00467435
Draining all recorded packets ...
Draining remaining packets ...
Time taken is 6099 cycles
====== Overall Traffic Statistics ======
====== Traffic class 0 ======
Packet latency average = 31.6748 (1 samples)
	minimum = 7 (1 samples)
	maximum = 62 (1 samples)
Network latency average = 31.6748 (1 samples)
	minimum = 7 (1 samples)
	maximum = 62 (1 samples)
Flit latency average = 31.7014 (1 samples)
	minimum = 7 (1 samples)
	maximum = 62 (1 samples)
Fragmentation average = 0 (1 samples)
	minimum = 0 (1 samples)
	maximum = 0 (1 samples)
Injected packet rate average = 0.150281 (1 samples)
	minimum = 0.134333 (1 samples)
	maximum = 0.166 (1 samples)
Accepted packet rate average = 0.150422 (1 samples)
	minimum = 0.134667 (1 samples)
	maximum = 0.166667 (1 samples)
Injected flit rate average = 0.150281 (1 samples)
	minimum = 0.134333 (1 samples)
	maximum = 0.166 (1 samples)
Accepted flit rate average = 0.150422 (1 samples)
	minimum = 0.134667 (1 samples)
	maximum = 0.166667 (1 samples)
Injected packet size average = 1 (1 samples)
Accepted packet size average = 1 (1 samples)
Hops average = 5.00111 (1 samples)
Total run time 0.398806
